@<TRIPOS>MOLECULE
1-min-ligand.pdb
 45 46 0 0 0
SMALL
GASTEIGER
Energy = 0

@<TRIPOS>ATOM
      1  C1        -0.6140   60.2600   24.7350 C.3   273  INH273      0.1884
      2  C2        -0.7450   58.7440   25.0140 C.3   273  INH273      0.1341
      3  C3         0.2750   58.2910   26.0840 C.3   273  INH273      0.1141
      4  C4         1.6980   58.6830   25.6460 C.3   273  INH273      0.1119
      5  C5         1.7420   60.2090   25.4150 C.3   273  INH273      0.1130
      6  C6         3.1390   60.6730   24.9740 C.3   273  INH273      0.0730
      7  O1        -1.4890   60.6040   23.6310 O.3   273  INH273     -0.3401
      8  O2        -2.0650   58.4520   25.4770 O.3   273  INH273     -0.3841
      9  O3         0.2010   56.8730   26.2650 O.3   273  INH273     -0.3864
     10  O4         2.0280   57.9830   24.4430 O.3   273  INH273     -0.3865
     11  O5         0.7640   60.5670   24.4030 O.3   273  INH273     -0.3405
     12  O6         3.1140   62.0850   24.8350 O.3   273  INH273     -0.3924
     13  C7        -3.0700   64.1740   21.9490 C.3   273  INH273      0.1854
     14  C8        -1.7010   63.6890   21.4250 C.3   273  INH273      0.1339
     15  C9        -1.5140   62.2060   21.7970 C.3   273  INH273      0.1144
     16  C10       -1.6190   62.0180   23.3230 C.3   273  INH273      0.1184
     17  C11       -3.0020   62.5380   23.7900 C.3   273  INH273      0.1134
     18  C12       -3.2000   62.4530   25.3190 C.3   273  INH273      0.0730
     19  O7        -3.2320   65.5560   21.6430 O.3   273  INH273     -0.3649
     20  O8        -1.6390   63.8440   20.0020 O.3   273  INH273     -0.3841
     21  O9        -0.2380   61.7770   21.3550 O.3   273  INH273     -0.3864
     22  O10       -3.1440   63.9240   23.3750 O.3   273  INH273     -0.3407
     23  O11       -2.1680   63.1570   26.0150 O.3   273  INH273     -0.3924
     24  H1        -0.8990   60.8500   25.6190 H     273  INH273      0.0938
     25  H2        -0.5560   58.2000   24.0870 H     273  INH273      0.0671
     26  H3         0.0450   58.7830   27.0330 H     273  INH273      0.0648
     27  H4         2.4100   58.4110   26.4290 H     273  INH273      0.0647
     28  H5         1.4780   60.7230   26.3430 H     273  INH273      0.0647
     29  H6         3.4140   60.2140   24.0200 H     273  INH273      0.0584
     30  H7         3.8750   60.3980   25.7330 H     273  INH273      0.0584
     31  H8        -2.6600   58.4370   24.7010 H     273  INH273      0.2101
     32  H9        -0.7330   56.6500   26.4390 H     273  INH273      0.2100
     33  H10        2.1240   57.0380   24.6650 H     273  INH273      0.2100
     34  H11        2.5670   62.2960   24.0440 H     273  INH273      0.2095
     35  H12       -3.8940   63.6260   21.4660 H     273  INH273      0.0935
     36  H13       -0.9060   64.2830   21.8860 H     273  INH273      0.0671
     37  H14       -2.2840   61.6080   21.3030 H     273  INH273      0.0648
     38  H15       -0.8180   62.5840   23.8090 H     273  INH273      0.0651
     39  H16       -3.7900   61.9560   23.3040 H     273  INH273      0.0647
     40  H17       -3.1960   61.4050   25.6310 H     273  INH273      0.0584
     41  H18       -4.1700   62.8860   25.5800 H     273  INH273      0.0584
     42  H19       -4.0180   65.8720   22.1250 H     273  INH273      0.2126
     43  H20       -1.8120   64.7830   19.8010 H     273  INH273      0.2101
     44  H21        0.4620   62.3000   21.8150 H     273  INH273      0.2100
     45  H22       -2.3830   63.1560   26.9650 H     273  INH273      0.2095
@<TRIPOS>BOND
     1     1     7    1
     2     1    24    1
     3     1    11    1
     4     1     2    1
     5     2    25    1
     6     2     8    1
     7     2     3    1
     8     3    26    1
     9     3     9    1
    10     3     4    1
    11     4    27    1
    12     4    10    1
    13     4     5    1
    14     5    28    1
    15     5    11    1
    16     5     6    1
    17     6    30    1
    18     6    29    1
    19     6    12    1
    20     7    16    1
    21     8    31    1
    22     9    32    1
    23    10    33    1
    24    12    34    1
    25    13    35    1
    26    13    22    1
    27    13    19    1
    28    13    14    1
    29    14    36    1
    30    14    20    1
    31    14    15    1
    32    15    37    1
    33    15    21    1
    34    15    16    1
    35    16    38    1
    36    16    17    1
    37    17    39    1
    38    17    22    1
    39    17    18    1
    40    18    41    1
    41    18    40    1
    42    18    23    1
    43    19    42    1
    44    20    43    1
    45    21    44    1
    46    23    45    1
