@<TRIPOS>MOLECULE
2-min-ligand.pdb
 53 52 0 0 0
SMALL
GASTEIGER
Energy = 0

@<TRIPOS>ATOM
      1 MN         -1.1730   31.6890   32.5880 Mn    481  MN2481      0.0000
      2 CA          1.4200   34.6270   31.1520 Ca    483  CA2483      0.0000
      3  C1         2.8250   40.8480   23.0050 C.3   487  INH487      0.0000
      4  C2         3.5870   40.5050   21.7110 C.3   487  INH487      0.0000
      5  C3         2.6100   40.5740   20.5090 C.3   487  INH487      0.0000
      6  C4         1.3150   39.7640   20.7620 C.3   487  INH487      0.0000
      7  C5         0.6780   40.1420   22.1210 C.3   487  INH487      0.0000
      8  C6        -0.5290   39.2450   22.4690 C.3   487  INH487      0.0000
      9  C7         5.9000   41.1640   20.9940 C.cat 487  INH487      0.0000
     10  C8         6.9060   42.2920   21.0150 C.3   487  INH487      0.0000
     11  N1         4.7070   41.4500   21.5550 N.am  487  INH487      0.0000
     12  O1         3.2510   40.0500   19.3430 O.3   487  INH487      0.0000
     13  O2         0.3910   40.0570   19.7110 O.3   487  INH487      0.0000
     14  O3         1.6810   39.9810   23.1490 O.3   487  INH487      0.0000
     15  O4        -1.1930   39.7550   23.6260 O.3   487  INH487      0.0000
     16  O5         6.1590   40.0810   20.5090 O.co2 487  INH487     -1.0000
     17  C9         4.5280   42.1890   25.8410 C.3   487  INH487      0.0000
     18  C10        3.3140   41.3710   25.3450 C.3   487  INH487      0.0000
     19  C11        2.8670   40.3410   26.4060 C.3   487  INH487      0.0000
     20  C12        4.0470   39.4600   26.8570 C.3   487  INH487      0.0000
     21  C13        5.1990   40.3630   27.3500 C.3   487  INH487      0.0000
     22  C14        6.4420   39.5760   27.8110 C.3   487  INH487      0.0000
     23  O6         4.1040   43.1020   26.8530 O.3   487  INH487      0.0000
     24  O7         3.7230   40.7040   24.1260 O.3   487  INH487      0.0000
     25  O8         1.7870   39.5470   25.9080 O.3   487  INH487      0.0000
     26  O9         3.6000   38.6680   27.9490 O.3   487  INH487      0.0000
     27  O10        5.5720   41.2930   26.3000 O.3   487  INH487      0.0000
     28  O11        7.0430   38.8520   26.7480 O.3   487  INH487      0.0000
     29  H1         2.4710   41.8900   22.9750 H     487  INH487      0.0000
     30  H2         3.9790   39.4870   21.7980 H     487  INH487      0.0000
     31  H3         2.3440   41.6200   20.3330 H     487  INH487      0.0000
     32  H4         1.5490   38.6960   20.7550 H     487  INH487      0.0000
     33  H5         0.3590   41.1880   22.0990 H     487  INH487      0.0000
     34  H6        -0.1980   38.2230   22.6580 H     487  INH487      0.0000
     35  H7        -1.2370   39.2370   21.6370 H     487  INH487      0.0000
     36  H8         7.8340   41.9540   21.4810 H     487  INH487      0.0000
     37  H9         6.5310   43.1500   21.5790 H     487  INH487      0.0000
     38  H10        7.1200   42.6190   19.9960 H     487  INH487      0.0000
     39  H11        4.5760   42.3730   21.9370 H     487  INH487      0.0000
     40  H12        2.6290   40.1430   18.5980 H     487  INH487      0.0000
     41  H13       -0.2540   39.3200   19.6560 H     487  INH487      0.0000
     42  H14       -1.9280   39.1560   23.8480 H     487  INH487      0.0000
     43  H15        4.9420   42.7940   25.0200 H     487  INH487      0.0000
     44  H16        2.4900   42.0580   25.1300 H     487  INH487      0.0000
     45  H17        2.5080   40.8880   27.2780 H     487  INH487      0.0000
     46  H18        4.3840   38.8210   26.0380 H     487  INH487      0.0000
     47  H19        4.8450   40.9490   28.2030 H     487  INH487      0.0000
     48  H20        6.1810   38.8860   28.6170 H     487  INH487      0.0000
     49  H21        7.1710   40.2800   28.1870 H     487  INH487      0.0000
     50  H22        4.8620   43.6760   27.0700 H     487  INH487      0.0000
     51  H23        1.7450   39.6690   24.9360 H     487  INH487      0.0000
     52  H24        4.1270   37.8300   27.9780 H     487  INH487      0.0000
     53  H25        6.5690   37.9940   26.6450 H     487  INH487      0.0000
@<TRIPOS>BOND
     1     3    24    1
     2     3    29    1
     3     3    14    1
     4     3     4    1
     5     4    30    1
     6     4    11    1
     7     4     5    1
     8     5    31    1
     9     5    12    1
    10     5     6    1
    11     6    32    1
    12     6    13    1
    13     6     7    1
    14     7    33    1
    15     7    14    1
    16     7     8    1
    17     8    35    1
    18     8    34    1
    19     8    15    1
    20     9    11   am
    21     9    16    2
    22     9    10    1
    23    10    38    1
    24    10    37    1
    25    10    36    1
    26    11    39    1
    27    12    40    1
    28    13    41    1
    29    15    42    1
    30    17    43    1
    31    17    27    1
    32    17    23    1
    33    17    18    1
    34    18    44    1
    35    18    24    1
    36    18    19    1
    37    19    45    1
    38    19    25    1
    39    19    20    1
    40    20    46    1
    41    20    26    1
    42    20    21    1
    43    21    47    1
    44    21    27    1
    45    21    22    1
    46    22    49    1
    47    22    48    1
    48    22    28    1
    49    23    50    1
    50    25    51    1
    51    26    52    1
    52    28    53    1
