@<TRIPOS>MOLECULE
241-min-ligand.pdb
 23 23 0 0 0
SMALL
GASTEIGER
Energy = 0

@<TRIPOS>ATOM
      1  N1        11.8400   49.7130   20.0300 N.4   524  INH524      0.3836
      2  C1        12.2930   51.0440   20.5540 C.3   524  INH524     -0.0386
      3  C2        13.1920   50.8830   21.7680 C.2   524  INH524      0.0276
      4  O1        13.4250   49.7670   22.1890 O.co2 524  INH524     -0.5515
      5  C3        11.0450   51.8870   20.8840 C.3   524  INH524     -0.0316
      6  O2        13.7510   51.8630   22.2110 O.co2 524  INH524     -0.5515
      7  H1        11.2500   49.8390   19.1870 H     524  INH524     -0.0891
      8  H2        11.2990   49.1850   20.7380 H     524  INH524     -0.0891
      9  H3        12.6530   49.1370   19.7520 H     524  INH524     -0.0891
     10  H4        12.8850   51.5190   19.7700 H     524  INH524      0.0147
     11  H5        11.3510   52.8150   21.3710 H     524  INH524      0.0302
     12  H6        10.4260   51.3460   21.5940 H     524  INH524      0.0302
     13  C4        10.2620   52.1920   19.6280 C.ar  524  INH524      0.0030
     14  C5        10.5470   53.3640   18.8240 C.ar  524  INH524      0.0032
     15  C6         9.1560   51.5770   19.1120 C.ar  524  INH524      0.1339
     16  C7         8.4790   50.3300   19.6050 C.3   524  INH524     -0.0036
     17  O3        11.3990   54.2190   18.9440 O.co2 524  INH524     -0.8594
     18  N2         9.5910   53.3420   17.8760 N.ar  524  INH524     -0.2358
     19  O4         8.6780   52.2300   18.0020 O.2   524  INH524     -0.3854
     20  H7         8.3920   49.6000   18.7980 H     524  INH524      0.0309
     21  H8         7.4700   50.5580   19.9540 H     524  INH524      0.0309
     22  H9         9.0280   49.8580   20.4200 H     524  INH524      0.0309
     23  H10        9.3310   54.1050   17.2720 H     524  INH524      0.2058
@<TRIPOS>BOND
     1     1     8    1
     2     1     2    1
     3     1     9    1
     4     1     7    1
     5     2     3    1
     6     2     5    1
     7     2    10    1
     8     3     6   ar
     9     3     4   ar
    10     5    12    1
    11     5    11    1
    12     5    13    1
    13    13    15   ar
    14    13    14   ar
    15    14    18   ar
    16    14    17    2
    17    15    19   ar
    18    15    16    1
    19    16    22    1
    20    16    21    1
    21    16    20    1
    22    18    23    1
    23    18    19   ar
@<TRIPOS>MOLECULE
241-min-ligand.pdb
 23 23 0 0 0
SMALL
GASTEIGER
Energy = 0

@<TRIPOS>ATOM
      1  N1        11.8400   49.7130   20.0300 N.4   524  INH524      0.3836
      2  C1        12.2930   51.0440   20.5540 C.3   524  INH524     -0.0386
      3  C2        13.1920   50.8830   21.7680 C.2   524  INH524      0.0276
      4  O1        13.4250   49.7670   22.1890 O.co2 524  INH524     -0.5515
      5  C3        11.0450   51.8870   20.8840 C.3   524  INH524     -0.0316
      6  O2        13.7510   51.8630   22.2110 O.co2 524  INH524     -0.5515
      7  H1        11.2500   49.8390   19.1870 H     524  INH524     -0.0891
      8  H2        11.2990   49.1850   20.7380 H     524  INH524     -0.0891
      9  H3        12.6530   49.1370   19.7520 H     524  INH524     -0.0891
     10  H4        12.8850   51.5190   19.7700 H     524  INH524      0.0147
     11  H5        11.3510   52.8150   21.3710 H     524  INH524      0.0302
     12  H6        10.4260   51.3460   21.5940 H     524  INH524      0.0302
     13  C4        10.2620   52.1920   19.6280 C.ar  524  INH524      0.0030
     14  C5        10.5470   53.3640   18.8240 C.ar  524  INH524      0.0032
     15  C6         9.1560   51.5770   19.1120 C.ar  524  INH524      0.1339
     16  C7         8.4790   50.3300   19.6050 C.3   524  INH524     -0.0036
     17  O3        11.3990   54.2190   18.9440 O.co2 524  INH524     -0.8594
     18  N2         9.5910   53.3420   17.8760 N.ar  524  INH524     -0.2358
     19  O4         8.6780   52.2300   18.0020 O.2   524  INH524     -0.3854
     20  H7         8.3920   49.6000   18.7980 H     524  INH524      0.0309
     21  H8         7.4700   50.5580   19.9540 H     524  INH524      0.0309
     22  H9         9.0280   49.8580   20.4200 H     524  INH524      0.0309
     23  H10        9.3310   54.1050   17.2720 H     524  INH524      0.2058
@<TRIPOS>BOND
     1     1     8    1
     2     1     2    1
     3     1     9    1
     4     1     7    1
     5     2     3    1
     6     2     5    1
     7     2    10    1
     8     3     6   ar
     9     3     4   ar
    10     5    12    1
    11     5    11    1
    12     5    13    1
    13    13    15   ar
    14    13    14   ar
    15    14    18   ar
    16    14    17    2
    17    15    19   ar
    18    15    16    1
    19    16    22    1
    20    16    21    1
    21    16    20    1
    22    18    23    1
    23    18    19   ar
